Rulari pentru:
sim-time-limit = 60min
usersCount = 5
nrOfChannels = 22

//pentru 0.5
0.159, 0, 2
212.264, 0, 455
21.263, 0, 142
1.431, 0, 11
51.206, 0, 252
0.50, 39858.182

//pentru 0.7
0.163, 0, 2
218.217, 0, 452
127.945, 0, 296
5.884, 0, 47
58.881, 0, 250
0.70, 28319.156

//pentru 0.9
0.162, 0, 2
249.412, 0, 395
16.911, 0, 82
1.594, 0, 13
41.716, 0, 185
0.90, 22162.374

//pentru 0.95
0.156, 0, 3
219.211, 0, 454
74.687, 0, 237
6.170, 0, 42
82.842, 0, 349
0.95, 20810.526

//pentru 1
0.162, 0, 2
242.770, 0, 441
194.400, 0, 536
6.069, 0, 38
83.063, 0, 430
1.00, 19733.636



0.031, 0, 2
1699.166, 2, 3310
1773.118, 3, 3421
1850.752, 6, 3514
1899.771, 22, 3555
0.90, 5269.949


0.036, 0, 1
5.360, 0, 34
4.873, 0, 45
4.440, 0, 30
6.756, 0, 46
0.70, 29207.792


0.034, 0, 1
4.803, 0, 28
5.005, 0, 38
5.361, 0, 51
6.064, 0, 39
0.50, 41078.182
0.334, 0, 4
1539.326, 1, 3037
1780.287, 21, 3576
0.50, 5743.636
